&HEAD CHID='virk_jetburner_20kW_15in', TITLE='20kW Propane Torch' /

&TIME T_END=600., WALL_INCREMENT=1 /
&DUMP DT_DEVC=0.1, DT_BNDF=0.1, DT_SMOKE3D=0.1, DT_SL3D=0.1,  /

&MESH ID='Mesh01', IJK=30,25,30, XB=0.0,0.3,-0.50,-0.25,0.0,0.3, MULT_ID='MULT-mesh'/
&MULT ID='MULT-mesh', DX=0.3, DY=0.25, DZ=0.3, I_UPPER=1, J_UPPER=1, K_UPPER=1, /

&REAC SOOT_YIELD=0.015 FUEL='PROPANE' /

&MATL ID='stainless steel', SPECIFIC_HEAT=0.515, CONDUCTIVITY=16.2, DENSITY=7900 /
&SURF ID='paint',    COLOR='BLACK',  EMISSIVITY=0.95, MATL_ID='stainless steel', THICKNESS=0.0079, HEAT_TRANSFER_MODEL='IMPINGING JET', CONVECTION_LENGTH_SCALE=0.0762  /
&SURF ID='steel', COLOR='SILVER', MATL_ID='stainless steel', THICKNESS=0.0079, EMISSIVITY=0.33/
&SURF ID='burner', HRRPUA=22222.22, TMP_FRONT=50., COLOR='RED' /
&SURF ID='vent', VEL=-3., TMP_FRONT=50., COLOR='BLUE' /

&VENT XB=0.0,0.60,0.00,0.0,0.00,0.60, SURF_ID='paint' /
&OBST ID='Obstruction', XB=0.25,0.34,-0.5,-0.38,0.25,0.26, SURF_ID='steel'/ 
&OBST ID='Obstruction', XB=0.33,0.34,-0.5,-0.38,0.26,0.34, SURF_ID='steel'/ 
&OBST ID='Obstruction', XB=0.25,0.34,-0.5,-0.38,0.34,0.35, SURF_ID='steel'/ 
&OBST ID='Obstruction', XB=0.25,0.26,-0.5,-0.38,0.26,0.34, SURF_ID='steel'/ 

&VENT ID='Vent', SURF_ID='burner', XB=0.28,0.31,-0.5,-0.5,0.28,0.31, IOR=2/ 
&VENT ID='Vent', SURF_ID='vent', XB=0.26,0.33,-0.5,-0.5,0.26,0.28, IOR=2/ 
&VENT ID='Vent', SURF_ID='vent', XB=0.26,0.28,-0.5,-0.5,0.28,0.31, IOR=2/ 
&VENT ID='Vent', SURF_ID='vent', XB=0.26,0.33,-0.5,-0.5,0.31,0.34, IOR=2/ 
&VENT ID='Vent', SURF_ID='vent', XB=0.31,0.33,-0.5,-0.5,0.28,0.31, IOR=2/ 

&VENT MB='XMIN', SURF_ID='OPEN', /
&VENT MB='XMAX', SURF_ID='OPEN', /
&VENT ID='Vent', SURF_ID='OPEN', XB=0.0,0.6,-0.5,-0.5,0.0,0.25/ 
&VENT ID='Vent', SURF_ID='OPEN', XB=0.0,0.25,-0.5,-0.5,0.25,0.34/ 
&VENT ID='Vent', SURF_ID='OPEN', XB=0.33,0.6,-0.5,-0.5,0.25,0.34/ 
&VENT ID='Vent', SURF_ID='OPEN', XB=0.0,0.6,-0.5,-0.5,0.34,0.6/ 
&VENT MB='ZMIN', SURF_ID='OPEN', /
&VENT MB='ZMAX', SURF_ID='OPEN', /

&BNDF QUANTITY='WALL TEMPERATURE', CELL_CENTERED=T /
&BNDF QUANTITY='GAUGE HEAT FLUX', CELL_CENTERED=T /
&BNDF QUANTITY='CONVECTIVE HEAT FLUX', CELL_CENTERED=T /
&BNDF QUANTITY='RADIATIVE HEAT FLUX', CELL_CENTERED=T /
&BNDF QUANTITY='INCIDENT HEAT FLUX', CELL_CENTERED=T /
&BNDF QUANTITY='TOTAL HEAT FLUX', CELL_CENTERED=T/
&BNDF QUANTITY='EMISSIVITY'      , CELL_CENTERED=T /
&BNDF QUANTITY='GAS TEMPERATURE'      , CELL_CENTERED=T /
&BNDF QUANTITY='HEAT TRANSFER COEFFICIENT'      , CELL_CENTERED=T /

&DEVC ID='GHF', XYZ=0.3,0.0,0.3331, IOR=-2, QUANTITY='GAUGE HEAT FLUX', /
&DEVC ID='THF', XYZ=0.3,0.0,0.3331, IOR=-2, QUANTITY='TOTAL HEAT FLUX', /
&DEVC ID='CHF', XYZ=0.3,0.0,0.3331, IOR=-2, QUANTITY='CONVECTIVE HEAT FLUX', /
&DEVC ID='IHF', XYZ=0.3,0.0,0.3331, IOR=-2, QUANTITY='INCIDENT HEAT FLUX', /
&DEVC ID='HTC', XYZ=0.3,0.0,0.3331, IOR=-2, QUANTITY='HEAT TRANSFER COEFFICIENT', /

&SLCF QUANTITY='TEMPERATURE', XB=0.0,0.6,-0.54,0.0,0.0,0.6, CELL_CENTERED=.TRUE. /

&TAIL /

