&HEAD CHID='virk_jetburner_20kW_15in', TITLE='20kW Propane Torch' /

&TIME T_END=60., WALL_INCREMENT=1 /
&DUMP DT_DEVC=1, DT_BNDF=1, DT_SMOKE3D=1, DT_SL3D=1,  /

&MESH ID='Mesh01', IJK=30,26,30, XB=0.0,0.3,-0.14,0.12,0.0,0.3, MULT_ID='MULT-mesh'/
&MULT ID='MULT-mesh', DX=0.3, DY=0.26, DZ=0.3, I_UPPER=1, J_UPPER=1, K_UPPER=1, /

&REAC SOOT_YIELD=0.015 FUEL='PROPANE' /

&MATL ID='AA6061-T6', SPECIFIC_HEAT=0.896, CONDUCTIVITY=152, DENSITY=2700 /
&MATL ID='stainless steel', SPECIFIC_HEAT=0.515, CONDUCTIVITY=16.2, DENSITY=7900 /
&SURF ID='paint',    COLOR='BLACK',  EMISSIVITY=0.95, MATL_ID='AA6061-T6', THICKNESS=0.0008128, HEAT_TRANSFER_MODEL='IMPINGING JET', CONVECTION_LENGTH_SCALE=0.0762  /
&SURF ID='steel', COLOR='SILVER', MATL_ID='stainless steel', THICKNESS=0.00079, EMISSIVITY=0.33/
&SURF ID='burner', HRRPUA=22222.22, TMP_FRONT=50., COLOR='RED' /
&SURF ID='vent', VEL=-3., TMP_FRONT=50., COLOR='BLUE' /

&VENT XB=0.0,0.60,0.38,0.38,0.00,0.60, SURF_ID='paint' /
&OBST XB=0.25,0.26,-0.14,0.0,0.26,0.34, SURF_ID='steel' /
&OBST XB=0.33,0.34,-0.14,0.0,0.26,0.34, SURF_ID='steel' /
&OBST XB=0.25,0.34,-0.14,0.0,0.25,0.26, SURF_ID='steel' /
&OBST XB=0.25,0.34,-0.14,0.0,0.34,0.35, SURF_ID='steel' /

&VENT XB=0.28,0.31,-0.14,-0.14,0.28,0.31, SURF_ID='burner', IOR=2, /
&VENT XB=0.26,0.33,-0.14,-0.14,0.26,0.28, SURF_ID='vent', IOR=2, /
&VENT XB=0.26,0.33,-0.14,-0.14,0.31,0.34, SURF_ID='vent', IOR=2, /
&VENT XB=0.26,0.28,-0.14,-0.14,0.28,0.31, SURF_ID='vent', IOR=2, /
&VENT XB=0.31,0.33,-0.14,-0.14,0.28,0.31, SURF_ID='vent', IOR=2, /

&VENT MB='XMIN', SURF_ID='OPEN', /
&VENT MB='XMAX', SURF_ID='OPEN', /
&VENT SURF_ID='OPEN', XB=0.0,0.6,-0.14,-0.14,0.0,0.25 /
&VENT SURF_ID='OPEN', XB=0.0,0.6,-0.14,-0.14,0.34,0.60 /
&VENT SURF_ID='OPEN', XB=0.0,0.25,-0.14,-0.14,0.25,0.34 /
&VENT SURF_ID='OPEN', XB=0.33,0.6,-0.14,-0.14,0.25,0.34 /
&VENT MB='ZMIN', SURF_ID='OPEN', /
&VENT MB='ZMAX', SURF_ID='OPEN', /

&BNDF QUANTITY='WALL TEMPERATURE', CELL_CENTERED=T /
&BNDF QUANTITY='GAUGE HEAT FLUX', CELL_CENTERED=T /
&BNDF QUANTITY='CONVECTIVE HEAT FLUX', CELL_CENTERED=T /
&BNDF QUANTITY='RADIATIVE HEAT FLUX', CELL_CENTERED=T /
&BNDF QUANTITY='INCIDENT HEAT FLUX', CELL_CENTERED=T /
&BNDF QUANTITY='TOTAL HEAT FLUX', CELL_CENTERED=T/
&BNDF QUANTITY='EMISSIVITY'      , CELL_CENTERED=T /
&BNDF QUANTITY='GAS TEMPERATURE'      , CELL_CENTERED=T /
&BNDF QUANTITY='HEAT TRANSFER COEFFICIENT'      , CELL_CENTERED=T /

&DEVC ID='GHF', XYZ=0.3,0.38,0.3381, IOR=-2, QUANTITY='GAUGE HEAT FLUX', /
&DEVC ID='THF', XYZ=0.3,0.38,0.3381, IOR=-2, QUANTITY='TOTAL HEAT FLUX', /
&DEVC ID='CHF', XYZ=0.3,0.38,0.3381, IOR=-2, QUANTITY='CONVECTIVE HEAT FLUX', /
&DEVC ID='IHF', XYZ=0.3,0.38,0.3381, IOR=-2, QUANTITY='INCIDENT HEAT FLUX', /
&DEVC ID='HTC', XYZ=0.3,0.38,0.3381, IOR=-2, QUANTITY='HEAT TRANSFER COEFFICIENT', /

&SLCF QUANTITY='TEMPERATURE', XB=0.0,0.6,-0.14,0.38,0.0,0.6, CELL_CENTERED=.TRUE. /

&DEVC XBP=0.3,0.3,0.0,0.38,0.3,0.3381, QUANTITY='TEMPERATURE', ID='TILTED CENTERLINE', POINTS=60,
STATISTICS_START=20., STATISTICS_END=60., SPATIAL_STATISTIC='MEAN', DX=0.02, DY=0.02, DZ=0.02 /

&DEVC XBP=0.3,0.3,0.0,0.38,0.3,0.3, QUANTITY='TEMPERATURE', ID='STRAIGHT CENTERLINE', POINTS=60,
STATISTICS_START=20., STATISTICS_END=60., SPATIAL_STATISTIC='MEAN', DX=0.02, DY=0.02, DZ=0.02 /

&DEVC XBP=0.3,0.3,0.38,0.38,0.0,0.6, IOR=-2, QUANTITY='GAUGE HEAT FLUX', ID='GHF-PROF', POINTS=60, TIME_HISTORY=T/
&DEVC XBP=0.3,0.3,0.38,0.38,0.0,0.6, IOR=-2, QUANTITY='TOTAL HEAT FLUX', ID='THF-PROF', POINTS=60, TIME_HISTORY=T/
&DEVC XBP=0.3,0.3,0.38,0.38,0.0,0.6, IOR=-2, QUANTITY='CONVECTIVE HEAT FLUX', ID='CHF-PROF', POINTS=60, TIME_HISTORY=T/
&DEVC XBP=0.3,0.3,0.38,0.38,0.0,0.6, IOR=-2, QUANTITY='INCIDENT HEAT FLUX', ID='IHF-PROF', POINTS=60, TIME_HISTORY=T/
&DEVC XBP=0.3,0.3,0.38,0.38,0.0,0.6, IOR=-2, QUANTITY='GAS TEMPERATURE', ID='TGAS-PROF', POINTS=60, TIME_HISTORY=T/
&DEVC XBP=0.3,0.3,0.38,0.38,0.0,0.6, IOR=-2, QUANTITY='HEAT TRANSFER COEFFICIENT', ID='HTC-PROF', POINTS=60, TIME_HISTORY=T/
&DEVC XBP=0.3,0.3,0.38,0.38,0.0,0.6, IOR=-2, QUANTITY='WALL TEMPERATURE', ID='TWALL-PROF', POINTS=60, TIME_HISTORY=T/

&TAIL /

