&HEAD CHID='wasson50_1p5_default', TITLE='Test case for thin 3D obstruction' /

&TIME T_END=500. /

&DUMP DT_BNDF=0.1, DT_SL3D=0.1, /

&MESH IJK=20,20,40, XB=0.0,0.4,0.0,0.4,0.0,0.8, MULT_ID='MESH-MULT' /
&MULT ID='MESH-MULT', I_UPPER=2, J_UPPER=2, DX=0.4, DY=0.4, /

&MATL ID= 'CONCRETE', FYI = 'Drysdale, Intro to Fire Dynamics', SPECIFIC_HEAT = 0.90, DENSITY = 2000., CONDUCTIVITY  = 1.0, /
&MATL ID='GYPSUM',SPECIFIC_HEAT_RAMP='GYPSUM_SPECIFIC_HEAT_RAMP', CONDUCTIVITY=0.17, DENSITY=711.0/
&RAMP ID='GYPSUM_SPECIFIC_HEAT_RAMP', T=42.0, F=1.0/
&RAMP ID='GYPSUM_SPECIFIC_HEAT_RAMP', T=60.0, F=1.2/
&RAMP ID='GYPSUM_SPECIFIC_HEAT_RAMP', T=80.0, F=2.44/
&RAMP ID='GYPSUM_SPECIFIC_HEAT_RAMP', T=100.0, F=10.44/
&RAMP ID='GYPSUM_SPECIFIC_HEAT_RAMP', T=106.0, F=12.86/
&RAMP ID='GYPSUM_SPECIFIC_HEAT_RAMP', T=110.0, F=8.73/
&RAMP ID='GYPSUM_SPECIFIC_HEAT_RAMP', T=118.0, F=11.36/
&RAMP ID='GYPSUM_SPECIFIC_HEAT_RAMP', T=124.0, F=5.26/
&RAMP ID='GYPSUM_SPECIFIC_HEAT_RAMP', T=130.0, F=8.86/
&RAMP ID='GYPSUM_SPECIFIC_HEAT_RAMP', T=148.0, F=5.0/
&RAMP ID='GYPSUM_SPECIFIC_HEAT_RAMP', T=160.0, F=1.83/
&RAMP ID='GYPSUM_SPECIFIC_HEAT_RAMP', T=180.0, F=1.04/
&RAMP ID='GYPSUM_SPECIFIC_HEAT_RAMP', T=200.0, F=1.05/

&SURF ID = 'FLOOR', MATL_ID = 'CONCRETE', THICKNESS  = 0.1, COLOR = 'GRAY' /


&REAC FUEL='PROPANE', SOOT_YIELD=0.025 /

&SURF ID='gypsum', EMISSIVITY=0.8, MATL_ID='GYPSUM', THICKNESS=0.0159, COLOR='SILVER' /

&SURF ID='fire', HRRPUA=555.6, TMP_FRONT=300, COLOR='RED' /

&VENT XB=0.00,1.20,0.00,1.20,0.80,0.8, SURF_ID='gypsum' /
&OBST XB=0.45,0.75,0.45,0.75,0.00,0.15, SURF_IDS='fire','INERT','INERT' /

&VENT MB='XMIN', SURF_ID='OPEN', /
&VENT MB='XMAX', SURF_ID='OPEN', /
&VENT MB='YMIN', SURF_ID='OPEN', /
&VENT MB='YMAX', SURF_ID='OPEN', /
&VENT MB='ZMIN', SURF_ID='FLOOR', /

&BNDF QUANTITY='WALL TEMPERATURE', CELL_CENTERED=T /
&BNDF QUANTITY='GAUGE HEAT FLUX', CELL_CENTERED=T /
&BNDF QUANTITY='CONVECTIVE HEAT FLUX', CELL_CENTERED=T /
&BNDF QUANTITY='RADIATIVE HEAT FLUX', CELL_CENTERED=T /
&BNDF QUANTITY='INCIDENT HEAT FLUX', CELL_CENTERED=T /
&BNDF QUANTITY='TOTAL HEAT FLUX', CELL_CENTERED=T/
&BNDF QUANTITY='EMISSIVITY'      , CELL_CENTERED=T /
&BNDF QUANTITY='GAS TEMPERATURE'      , CELL_CENTERED=T /
&BNDF QUANTITY='HEAT TRANSFER COEFFICIENT'      , CELL_CENTERED=T /

&SLCF XB=-0.3,1.5,-0.3,1.5,0.0,1.5, QUANTITY='TEMPERATURE', CELL_CENTERED=T /

&DEVC ID='GHF', XYZ=0.6,0.6,0.8, IOR=-3, QUANTITY='GAUGE HEAT FLUX', /
&DEVC ID='THF', XYZ=0.6,0.6,0.8, IOR=-3, QUANTITY='TOTAL HEAT FLUX', /
&DEVC ID='CHF', XYZ=0.6,0.6,0.8, IOR=-3, QUANTITY='CONVECTIVE HEAT FLUX', /
&DEVC ID='IHF', XYZ=0.6,0.6,0.8, IOR=-3, QUANTITY='INCIDENT HEAT FLUX', /
&DEVC ID='HTC', XYZ=0.6,0.6,0.8, IOR=-3, QUANTITY='HEAT TRANSFER COEFFICIENT', /

&TAIL /

