&HEAD CHID='wasson_test5_default', /

&TIME T_END=500. /

&DUMP DT_BNDF=5, DT_SL3D=5, DT_DEVC=5 /

&MESH IJK=20,20,50, XB=-0.6,-0.2,-0.6,-0.2,0.0,1.0, MULT_ID='MESH-MULT' /
&MULT ID='MESH-MULT', I_UPPER=2, J_UPPER=2, DX=0.4, DY=0.4, /

&MATL ID= 'CONCRETE', FYI = 'Drysdale, Intro to Fire Dynamics', SPECIFIC_HEAT = 0.90, DENSITY = 2000., CONDUCTIVITY  = 1.0, /
&MATL ID='GYPSUM',SPECIFIC_HEAT_RAMP='GYPSUM_SPECIFIC_HEAT_RAMP', CONDUCTIVITY=0.17, DENSITY=711.0/
&RAMP ID='GYPSUM_SPECIFIC_HEAT_RAMP', T=42.0, F=1.0/
&RAMP ID='GYPSUM_SPECIFIC_HEAT_RAMP', T=60.0, F=1.2/
&RAMP ID='GYPSUM_SPECIFIC_HEAT_RAMP', T=80.0, F=2.44/
&RAMP ID='GYPSUM_SPECIFIC_HEAT_RAMP', T=100.0, F=10.44/
&RAMP ID='GYPSUM_SPECIFIC_HEAT_RAMP', T=106.0, F=12.86/
&RAMP ID='GYPSUM_SPECIFIC_HEAT_RAMP', T=110.0, F=8.73/
&RAMP ID='GYPSUM_SPECIFIC_HEAT_RAMP', T=118.0, F=11.36/
&RAMP ID='GYPSUM_SPECIFIC_HEAT_RAMP', T=124.0, F=5.26/
&RAMP ID='GYPSUM_SPECIFIC_HEAT_RAMP', T=130.0, F=8.86/
&RAMP ID='GYPSUM_SPECIFIC_HEAT_RAMP', T=148.0, F=5.0/
&RAMP ID='GYPSUM_SPECIFIC_HEAT_RAMP', T=160.0, F=1.83/
&RAMP ID='GYPSUM_SPECIFIC_HEAT_RAMP', T=180.0, F=1.04/
&RAMP ID='GYPSUM_SPECIFIC_HEAT_RAMP', T=200.0, F=1.05/

&SURF ID = 'FLOOR', MATL_ID = 'CONCRETE', THICKNESS  = 0.1, COLOR = 'GRAY' /


&REAC FUEL='PROPANE', SOOT_YIELD=0.025 /

&SURF ID='gypsum', EMISSIVITY=0.8, MATL_ID='GYPSUM', THICKNESS=0.0159, COLOR='SILVER', /

&SURF ID='fire', HRRPUA=1000., TMP_FRONT=300, COLOR='RED' /

&VENT XB=-0.6,0.6,-0.6,0.6,1.,1., SURF_ID='gypsum' /
&OBST XB=-0.15,0.15,-0.15,0.15,0.00,0.15, SURF_IDS='fire','INERT','INERT' /

&VENT MB='XMIN', SURF_ID='OPEN', /
&VENT MB='XMAX', SURF_ID='OPEN', /
&VENT MB='YMIN', SURF_ID='OPEN', /
&VENT MB='YMAX', SURF_ID='OPEN', /
&VENT MB='ZMIN', SURF_ID='FLOOR', /

&DEVC ID='TGAS1', XYZ=0.0,0.0,0.9746, IOR=-3, QUANTITY='TEMPERATURE', /
&DEVC ID='VEL',   XYZ=0.0636,0.0,0.9746, IOR=-3, QUANTITY='VELOCITY', /
&DEVC ID='TGAS2', XYZ=0.0636,0.0,0.9746, IOR=-3, QUANTITY='TEMPERATURE', /
&DEVC ID='GHF',   XYZ=0.0318,0.0,1., IOR=-3, QUANTITY='GAUGE HEAT FLUX', /
&DEVC ID='THF',   XYZ=0.0318,0.0,1., IOR=-3, QUANTITY='TOTAL HEAT FLUX', /
&DEVC ID='CHF',   XYZ=0.0318,0.0,1., IOR=-3, QUANTITY='CONVECTIVE HEAT FLUX', /
&DEVC ID='IHF',   XYZ=0.0318,0.0,1., IOR=-3, QUANTITY='INCIDENT HEAT FLUX', /
&DEVC ID='HTC',   XYZ=0.0318,0.0,1., IOR=-3, QUANTITY='HEAT TRANSFER COEFFICIENT', /
&DEVC ID='GHF2', XYZ=-0.0254,0.0,1., IOR=-3, QUANTITY='GAUGE HEAT FLUX', /

&TAIL /

