&HEAD CHID='Tamanini_D38_Q62_DS_20', TITLE='Tamanini_D38_Q62_DS_20' /
&MESH IJK=40,40,33, XB=-0.6,0.0,-0.6,0.0,-0.4308,0.0769, MULT_ID='MESH' /
&MULT ID='MESH', I_UPPER=1, J_UPPER=1, K_UPPER=3, DX=0.6, DY=0.6, DZ=0.5077 /
&TIME T_END=60. /
&REAC FUEL='PROPANE', SOOT_YIELD=0.015/

&SURF ID='burner', HRRPUA=429.36, COLOR='RED',  /  
&OBST XB=-0.1900,0.1900,-0.1900,0.1900,-0.1,0.0, SURF_IDS='burner','INERT','INERT', THICKEN=.TRUE. /

&VENT DB='XMIN', SURF_ID='INERT' /
&VENT DB='XMAX', SURF_ID='INERT' /
&VENT DB='YMIN', SURF_ID='INERT' /
&VENT DB='YMAX', SURF_ID='INERT' /
&VENT DB='ZMIN', SURF_ID='OPEN' /
&VENT DB='ZMAX', SURF_ID='OPEN' /

&DUMP DT_DEVC=5., DT_HRR=5., NFRAMES=240, SIG_FIGS=4, SIG_FIGS_EXP=2 /

&DEVC XB=0.0,0.0,0.0,0.0,0.0077,1.5923, QUANTITY='HRRPUV', DX=0.6, DY=0.6, DZ=0.0077, SPATIAL_STATISTIC='VOLUME INTEGRAL', POINTS=104, Z_ID='Height', ID='HRR' /
&CTRL ID='pct95', FUNCTION_TYPE='PERCENTILE', INPUT_ID='HRR', PERCENTILE=0.95 /
&CTRL ID='pct97', FUNCTION_TYPE='PERCENTILE', INPUT_ID='HRR', PERCENTILE=0.97 /
&CTRL ID='pct99', FUNCTION_TYPE='PERCENTILE', INPUT_ID='HRR', PERCENTILE=0.99 /
&DEVC ID='Lf_95', XYZ=0,0,0, QUANTITY='CONTROL VALUE', CTRL_ID='pct95', TEMPORAL_STATISTIC='RUNNING AVERAGE', STATISTICS_START=20., UNITS='m' /
&DEVC ID='Lf_97', XYZ=0,0,0, QUANTITY='CONTROL VALUE', CTRL_ID='pct97', TEMPORAL_STATISTIC='RUNNING AVERAGE', STATISTICS_START=20., UNITS='m' /
&DEVC ID='Lf_99', XYZ=0,0,0, QUANTITY='CONTROL VALUE', CTRL_ID='pct99', TEMPORAL_STATISTIC='RUNNING AVERAGE', STATISTICS_START=20., UNITS='m' /
&TAIL /
